%mem=2048Mb
%Nprocshared=4
# b3lyp/genecp opt(MaxC=100) maxdisk=1gb scfcyc=256

Coal_kick_v2_Trial # 0

0 1
C   -7.878285   -0.080962   -0.219313  
H   -6.790073    0.060428   -0.230320  
O   -8.607568    0.084805   -1.156534  
O   -8.270961   -0.469472    1.008320  
O   -6.098048    2.221125    3.810090  
H   -6.334093    1.428461    3.318658  
H   -5.390321    2.628827    3.301717  
O   -3.997532    0.335029    0.580581  
H   -3.621037   -0.090004   -0.196039  
H   -4.623470    0.978453    0.234537  
O   -7.853881   -2.422763    5.680265  
H   -7.624405   -3.313508    5.398390  
H   -8.095906   -1.959621    4.872512  
O   -7.126924   -1.678948    2.855774  
H   -6.657196   -1.619646    3.693258  
H   -6.903654   -0.869516    2.386188  
O   -4.466241    0.200937    2.784352  
H   -5.346781   -0.184169    2.971588  
H   -3.774180   -0.419218    3.105900  
H   -4.360056    1.028081    3.258670  
 
C O 0
6-31+G*
****
H 0
3-21g
****

